Version 4
SHEET 1 2884 1016
WIRE 1104 -96 1056 -96
WIRE 976 48 976 -96
WIRE 1008 48 976 48
WIRE 1216 48 1216 -96
WIRE 1216 48 1072 48
WIRE 976 144 976 48
WIRE 1008 144 976 144
WIRE 1216 144 1216 48
WIRE 1216 144 1072 144
WIRE 240 160 240 64
WIRE 800 160 720 160
WIRE 1712 160 1680 160
WIRE 1840 160 1792 160
WIRE 720 176 720 160
WIRE 800 192 800 160
WIRE 976 256 976 144
WIRE 1008 256 976 256
WIRE 1216 256 1216 144
WIRE 1216 256 1072 256
WIRE 2208 256 2208 208
WIRE 432 288 432 16
WIRE 800 320 800 272
WIRE 848 320 800 320
WIRE 944 320 912 320
WIRE 128 336 96 336
WIRE 240 336 240 240
WIRE 240 336 208 336
WIRE 368 336 240 336
WIRE 2320 336 2320 192
WIRE 1680 368 1680 160
WIRE 1712 368 1680 368
WIRE 944 384 944 320
WIRE 976 384 976 256
WIRE 976 384 944 384
WIRE 1024 384 976 384
WIRE 1840 384 1840 160
WIRE 1840 384 1776 384
WIRE 1856 384 1840 384
WIRE 2016 384 2000 384
WIRE 2208 384 2208 336
WIRE 2256 384 2208 384
WIRE 1216 400 1216 256
WIRE 1216 400 1088 400
WIRE 1296 400 1216 400
WIRE 1408 400 1376 400
WIRE 1536 400 1536 160
WIRE 1536 400 1408 400
WIRE 1568 400 1536 400
WIRE 1712 400 1568 400
WIRE 432 416 432 384
WIRE 592 416 432 416
WIRE 816 416 736 416
WIRE 1024 416 816 416
WIRE 2016 432 2016 384
WIRE 1408 448 1408 400
WIRE 1568 448 1568 400
WIRE 2320 448 2320 432
WIRE 2400 448 2320 448
WIRE 2512 448 2480 448
WIRE 2624 448 2576 448
WIRE 432 464 432 416
WIRE 2320 496 2320 448
WIRE 816 512 816 496
WIRE 2624 528 2624 448
WIRE 1408 544 1408 512
WIRE 432 560 432 544
WIRE 1568 560 1568 528
WIRE 2320 592 2320 576
WIRE 2624 624 2624 608
WIRE 336 736 240 736
WIRE 464 736 336 736
WIRE 592 736 464 736
WIRE 704 736 592 736
WIRE 336 800 336 736
WIRE 464 800 464 736
WIRE 592 800 592 736
WIRE 256 880 128 880
WIRE 592 896 592 880
WIRE 736 896 592 896
WIRE 752 896 736 896
WIRE 592 912 592 896
WIRE 736 928 736 896
WIRE 256 1008 256 880
WIRE 336 1008 336 864
WIRE 336 1008 256 1008
WIRE 464 1008 464 864
WIRE 464 1008 336 1008
WIRE 592 1008 592 992
WIRE 592 1008 464 1008
WIRE 736 1008 736 992
WIRE 736 1008 592 1008
FLAG 816 512 0
FLAG 432 560 0
FLAG 1568 560 0
FLAG 1408 544 0
FLAG 2320 592 0
FLAG 2624 624 0
FLAG 720 176 0
SYMBOL npn 368 288 R0
SYMATTR InstName Q1
SYMATTR Value 2SC1815
SYMBOL res 224 144 R0
SYMATTR InstName R2
SYMATTR Value 510k
SYMBOL res 224 320 R90
WINDOW 0 0 56 VBottom 2
WINDOW 3 32 56 VTop 2
SYMATTR InstName R1
SYMATTR Value 1k
SYMBOL cap 96 320 R90
WINDOW 0 0 32 VBottom 2
WINDOW 3 32 32 VTop 2
SYMATTR InstName C1
SYMATTR Value 0.02
SYMBOL cap 656 400 R90
WINDOW 0 0 32 VBottom 2
WINDOW 3 32 32 VTop 2
SYMATTR InstName C2
SYMATTR Value 1µ
SYMBOL cap 1072 240 R90
WINDOW 0 0 32 VBottom 2
WINDOW 3 32 32 VTop 2
SYMATTR InstName C4
SYMATTR Value 51p
SYMBOL diode 1072 32 R90
WINDOW 0 0 32 VBottom 2
WINDOW 3 32 32 VTop 2
SYMATTR InstName D2
SYMATTR Value MA150
SYMBOL diode 1008 160 R270
WINDOW 0 32 32 VTop 2
WINDOW 3 0 32 VBottom 2
SYMATTR InstName D1
SYMATTR Value MA150
SYMBOL Opamps/LT1214 1056 336 R0
SYMATTR InstName U2
SYMBOL res 1392 384 R90
WINDOW 0 0 56 VBottom 2
WINDOW 3 32 56 VTop 2
SYMATTR InstName R8
SYMATTR Value 1k
SYMBOL Opamps/LT1214 1744 320 R0
SYMATTR InstName U1
SYMBOL res 1808 144 R90
WINDOW 0 0 56 VBottom 2
WINDOW 3 32 56 VTop 2
SYMATTR InstName R11
SYMATTR Value 1k
SYMBOL res 752 400 R90
WINDOW 0 0 56 VBottom 2
WINDOW 3 32 56 VTop 2
SYMATTR InstName RA
SYMATTR Value ""
SYMBOL res 832 512 R180
WINDOW 0 36 76 Left 2
WINDOW 3 36 40 Left 2
SYMATTR InstName R5
SYMATTR Value 10k
SYMBOL res 1072 -112 R90
WINDOW 0 0 56 VBottom 2
WINDOW 3 32 56 VTop 2
SYMATTR InstName R6
SYMATTR Value 51k
SYMBOL cap 912 304 R90
WINDOW 0 0 32 VBottom 2
WINDOW 3 32 32 VTop 2
SYMATTR InstName C3
SYMATTR Value 0.047
SYMBOL res 416 448 R0
SYMATTR InstName R3
SYMATTR Value 10k
SYMBOL res 1552 432 R0
SYMATTR InstName R9
SYMATTR Value 10k
SYMBOL res 2192 240 R0
SYMATTR InstName R13
SYMATTR Value 510k
SYMBOL npn 2256 336 R0
SYMATTR InstName Q3
SYMATTR Value 2SC1815
SYMBOL res 2304 480 R0
SYMATTR InstName R14
SYMATTR Value 10k
SYMBOL res 2496 432 R90
WINDOW 0 0 56 VBottom 2
WINDOW 3 32 56 VTop 2
SYMATTR InstName RB
SYMATTR Value 100
SYMBOL cap 2576 432 R90
WINDOW 0 0 32 VBottom 2
WINDOW 3 32 32 VTop 2
SYMATTR InstName C9
SYMATTR Value 10 uF
SYMBOL res 2608 512 R0
SYMATTR InstName RC
SYMATTR Value 10k
SYMBOL res 784 176 R0
SYMATTR InstName R4
SYMATTR Value 4k7
SYMBOL res 2016 368 R90
WINDOW 0 0 56 VBottom 2
WINDOW 3 32 56 VTop 2
SYMATTR InstName R12
SYMATTR Value 1k
SYMBOL cap 1920 368 R90
WINDOW 0 0 32 VBottom 2
WINDOW 3 32 32 VTop 2
SYMATTR InstName C7
SYMATTR Value 1 uF
SYMBOL diode 352 864 R180
WINDOW 0 24 64 Left 2
WINDOW 3 24 0 Left 2
SYMATTR InstName D8
SYMBOL cap 448 800 R0
SYMATTR InstName C17
SYMBOL res 576 784 R0
SYMATTR InstName R33
SYMATTR Value 10k
SYMBOL res 576 896 R0
SYMATTR InstName R32
SYMATTR Value 10k
SYMBOL cap 720 928 R0
SYMATTR InstName C16
SYMBOL polcap 1392 448 R0
SYMATTR InstName C5
